Version 4
SHEET 1 880 680
WIRE 224 -176 16 -176
WIRE 16 -128 16 -176
WIRE 224 -128 224 -176
WIRE 16 -32 16 -48
WIRE 224 0 224 -64
WIRE 224 128 224 80
WIRE 48 208 -64 208
WIRE 176 208 128 208
WIRE 224 240 224 224
WIRE -64 256 -64 208
WIRE -64 352 -64 336
FLAG 16 -32 0
FLAG 224 240 0
FLAG -64 352 0
SYMBOL nmos 176 128 R0
SYMATTR InstName M1
SYMATTR Value 2N7002
SYMBOL LED 208 -128 R0
SYMATTR InstName D1
SYMBOL res 208 -16 R0
SYMATTR InstName R1
SYMATTR Value 21.7
SYMBOL voltage -64 240 R0
SYMATTR InstName V1
SYMATTR Value 3.3
SYMBOL voltage 16 -144 R0
SYMATTR InstName V2
SYMATTR Value 3.3
SYMBOL res 144 192 R90
WINDOW 0 0 56 VBottom 2
WINDOW 3 32 56 VTop 2
SYMATTR InstName R2
SYMATTR Value 330
TEXT -176 408 Left 2 !.model myled D(Is=2.5e-29 Rs=2.0 N=1.13 type=LED)
TEXT -178 428 Left 2 !.tran 3000
