Version 4
SHEET 1 2360 680
WIRE 1040 64 992 64
WIRE 1152 64 1104 64
WIRE -560 80 -576 80
WIRE -544 80 -560 80
WIRE -400 80 -464 80
WIRE -288 80 -400 80
WIRE -224 80 -288 80
WIRE -128 80 -224 80
WIRE 48 80 -128 80
WIRE 160 80 48 80
WIRE 416 80 160 80
WIRE 688 80 416 80
WIRE 1440 80 1392 80
WIRE 1552 80 1504 80
WIRE -128 96 -128 80
WIRE 48 128 48 80
WIRE 160 128 160 80
WIRE 416 128 416 80
WIRE 688 128 688 80
WIRE -656 144 -656 80
WIRE -560 144 -560 80
WIRE -288 160 -288 144
WIRE -288 160 -400 160
WIRE -224 160 -224 144
WIRE -224 160 -288 160
WIRE -128 160 -224 160
WIRE 992 160 992 64
WIRE 1040 160 992 160
WIRE 1152 160 1152 64
WIRE 1152 160 1120 160
WIRE -400 176 -400 160
WIRE -128 176 -128 160
WIRE 1392 176 1392 80
WIRE 1440 176 1392 176
WIRE 1552 176 1552 80
WIRE 1552 176 1520 176
WIRE -656 256 -656 224
WIRE -560 256 -560 208
WIRE -560 256 -656 256
WIRE -400 256 -560 256
WIRE -288 256 -288 224
WIRE -288 256 -400 256
WIRE -224 256 -224 224
WIRE -224 256 -288 256
WIRE -128 256 -224 256
WIRE 48 272 48 208
WIRE 160 272 160 208
WIRE 160 272 48 272
WIRE 416 272 416 208
WIRE 416 272 160 272
WIRE 688 272 688 208
WIRE 688 272 416 272
WIRE 768 272 688 272
WIRE 784 272 768 272
WIRE 896 272 864 272
WIRE 992 272 992 160
WIRE 992 272 960 272
WIRE 1040 272 992 272
WIRE 1152 288 1152 160
WIRE 1152 288 1104 288
WIRE 1184 288 1152 288
WIRE 1296 288 1264 288
WIRE 1392 288 1392 176
WIRE 1392 288 1360 288
WIRE 1440 288 1392 288
WIRE 1040 304 992 304
WIRE 1552 304 1552 176
WIRE 1552 304 1504 304
WIRE 1744 304 1552 304
WIRE 768 320 768 272
WIRE 1440 320 1392 320
WIRE 992 368 992 304
WIRE 1392 384 1392 320
FLAG -128 256 vn
IOPIN -128 256 In
FLAG 1072 320 vn
FLAG 1072 256 vp
FLAG 1744 304 out
IOPIN 1744 304 Out
FLAG 768 400 vn
FLAG 992 368 0
FLAG 1472 336 vn
FLAG 1472 272 vp
FLAG 1392 384 0
FLAG -128 176 0
FLAG -128 96 vp
IOPIN -128 96 In
SYMBOL current 48 128 R0
WINDOW 123 24 108 Left 2
WINDOW 39 0 0 Left 0
SYMATTR Value2 AC 1
SYMATTR InstName In1
SYMATTR Value 1m
SYMBOL current 160 128 R0
WINDOW 123 24 108 Left 2
WINDOW 39 0 0 Left 0
SYMATTR Value2 AC 1
SYMATTR InstName In2
SYMATTR Value SINE(0 400n 60)
SYMBOL current 416 128 R0
WINDOW 123 24 108 Left 2
WINDOW 39 0 0 Left 0
SYMATTR Value2 AC 1
SYMATTR InstName In3
SYMATTR Value SINE(0 400n 40k)
SYMBOL current 688 128 R0
WINDOW 123 24 108 Left 2
WINDOW 39 0 0 Left 0
SYMATTR Value2 AC 1
SYMATTR InstName Is
SYMATTR Value SINE(0 40n {freq_Lsr})
SYMBOL voltage -656 128 R0
WINDOW 0 -115 92 Left 2
WINDOW 123 0 0 Left 0
WINDOW 39 19 44 Left 2
WINDOW 3 -248 12 Left 2
SYMATTR InstName Vsupply
SYMATTR Value SINE(3.3 30m 2632)
SYMBOL res -416 64 R0
SYMATTR InstName R5
SYMATTR Value {Rsp}
SYMBOL res -416 160 R0
SYMATTR InstName R6
SYMATTR Value {Rsp}
SYMBOL cap -304 80 R0
SYMATTR InstName C3
SYMATTR Value 1m
SYMBOL cap -304 160 R0
SYMATTR InstName C4
SYMATTR Value 1m
SYMBOL cap -240 160 R0
SYMATTR InstName C5
SYMATTR Value 100n
SYMBOL cap -240 80 R0
SYMATTR InstName C6
SYMATTR Value 100n
SYMBOL OpAmps\\UniversalOpAmp2 1072 288 R0
SYMATTR InstName U1
SYMATTR Value2 Avol=25k GBW=1Meg Slew=0.6Meg
SYMATTR SpiceLine Ilimit=6m Rail=25m Vos=0
SYMBOL res 1136 144 R90
WINDOW 0 0 56 VBottom 2
WINDOW 3 32 56 VTop 2
SYMATTR InstName R2
SYMATTR Value {RL}
SYMBOL res 752 304 R0
SYMATTR InstName R7
SYMATTR Value 2.5k
SYMBOL cap 1104 48 R90
WINDOW 0 0 32 VBottom 2
WINDOW 3 32 32 VTop 2
SYMATTR InstName C2
SYMATTR Value {CL}
SYMBOL res 880 256 R90
WINDOW 0 0 56 VBottom 2
WINDOW 3 32 56 VTop 2
SYMATTR InstName R1
SYMATTR Value {RH}
SYMBOL cap 960 256 R90
WINDOW 0 0 32 VBottom 2
WINDOW 3 32 32 VTop 2
SYMATTR InstName C1
SYMATTR Value {CH}
SYMBOL OpAmps\\UniversalOpAmp2 1472 304 R0
SYMATTR InstName U2
SYMATTR Value2 Avol=25k GBW=1Meg Slew=0.6Meg
SYMATTR SpiceLine Ilimit=6m Rail=25m Vos=0
SYMBOL res 1536 160 R90
WINDOW 0 0 56 VBottom 2
WINDOW 3 32 56 VTop 2
SYMATTR InstName R3
SYMATTR Value {RL}
SYMBOL cap 1504 64 R90
WINDOW 0 0 32 VBottom 2
WINDOW 3 32 32 VTop 2
SYMATTR InstName C7
SYMATTR Value {CL}
SYMBOL cap 1360 272 R90
WINDOW 0 0 32 VBottom 2
WINDOW 3 32 32 VTop 2
SYMATTR InstName C8
SYMATTR Value {CH}
SYMBOL res 1280 272 R90
WINDOW 0 0 56 VBottom 2
WINDOW 3 32 56 VTop 2
SYMATTR InstName R4
SYMATTR Value {RH}
SYMBOL res -448 64 R90
WINDOW 0 0 56 VBottom 2
WINDOW 3 32 56 VTop 2
SYMATTR InstName R8
SYMATTR Value 100
SYMBOL res -560 64 R90
WINDOW 0 0 56 VBottom 2
WINDOW 3 32 56 VTop 2
SYMATTR InstName R9
SYMATTR Value 100
SYMBOL cap -576 144 R0
SYMATTR InstName C9
SYMATTR Value 1µ
TEXT -408 56 Left 2 !.param Rsp=1k
TEXT 320 -64 Left 2 !.tran 50ms\n.step param freq_Lsr list 1471 1724 2000 2273 2941 3333 3571 3846 4167\n.meas avgV avg V(out)
TEXT 48 0 Left 2 !;meas psrc pp V(vp)
TEXT 48 32 Left 2 !.meas pout pp V(out)
TEXT 1184 72 Left 2 !.param CL=0.05nF
TEXT 1184 104 Left 2 !.param RL=200k
TEXT 1184 136 Left 2 !.param CH=100nF
TEXT 1184 168 Left 2 !.param RH 1k
TEXT -816 -104 Left 2 ;.ac dec 0.01 100k 10\n.param freq_Lsr 1471\n.meas ac maxgain max mag(v(out))\n.meas ac low_corner find freq when mag(v(out))=maxgain/sqrt(2)\n.mease ac high_corner find freq when mag(v(out))=maxgain/sqrt(2) cross=2
